24
AB1B8.log	Energy: -319793.2159415
C         -3.69983       -0.76104        0.00000
C         -2.43327       -1.37590        0.00004
C         -1.23024       -0.63168       -0.00002
C         -1.24758        0.81096        0.00001
C         -3.83159        0.61979       -0.00001
C          0.00000       -1.31832       -0.00005
C          0.00000        1.46295        0.00010
C          1.24758        0.81096        0.00002
C          1.23024       -0.63168       -0.00002
C          2.43327       -1.37590        0.00002
H          2.36993       -2.46246        0.00001
C          3.69983       -0.76104        0.00000
C          3.83159        0.61979        0.00000
H          0.00000       -2.40832       -0.00006
H         -4.57652       -1.40767        0.00000
H         -2.36993       -2.46246        0.00003
H         -2.66699        2.72587       -0.00009
H         -4.84886        1.01278        0.00005
H          0.00000        2.55175       -0.00005
H          4.57652       -1.40767        0.00000
H          4.84886        1.01278        0.00004
H          2.66699        2.72587       -0.00007
B         -2.58437        1.53062       -0.00004
B          2.58437        1.53062       -0.00003
