24
AB2B7.log	Energy: -319778.1851043
C         -3.71372       -0.76855        0.00002
C         -2.47498       -1.40258       -0.00003
C         -1.23762       -0.69715       -0.00002
C         -1.24587        0.74694       -0.00003
C         -2.45533        1.47157        0.00001
C          0.00000       -1.36343        0.00000
C          0.00000        1.41927       -0.00007
C          1.24586        0.74694       -0.00003
C          1.23762       -0.69715       -0.00001
C          2.47499       -1.40258       -0.00001
H          2.41387       -2.49574        0.00001
C          3.71372       -0.76855        0.00003
C          2.45533        1.47157        0.00001
H          0.00000       -2.45627       -0.00001
H         -4.59278       -1.41870        0.00007
H         -2.41386       -2.49575       -0.00001
H         -2.35994        2.56235        0.00003
H         -4.85158        1.34464        0.00013
H          0.00000        2.51217       -0.00004
H          4.59279       -1.41869        0.00008
H          4.85158        1.34465        0.00010
H          2.35993        2.56236        0.00002
B         -3.81275        0.74212        0.00005
B          3.81275        0.74213        0.00003
