24
AB6B8.log	Energy: -319816.2986138
C          3.91571        0.68242        0.00020
C          1.22883        0.72535       -0.00013
C          1.22883       -0.72535       -0.00011
C          3.91571       -0.68242        0.00017
C          0.02027        1.40152       -0.00011
C          0.02027       -1.40152       -0.00012
C         -1.23408       -0.71614       -0.00004
C         -1.23408        0.71614       -0.00003
C         -2.47389        1.40492        0.00003
H         -2.47249        2.49585        0.00004
C         -3.66889        0.70744        0.00011
C         -3.66889       -0.70744        0.00010
C         -2.47389       -1.40492        0.00003
H          0.01000        2.49389       -0.00018
H          4.87936        1.20599        0.00042
H          2.58038        2.69288       -0.00008
H          2.58038       -2.69288       -0.00049
H          4.87936       -1.20599        0.00030
H          0.01000       -2.49389       -0.00016
H         -4.61646        1.24696        0.00017
H         -4.61646       -1.24696        0.00016
H         -2.47249       -2.49585        0.00003
B          2.57830        1.48926       -0.00019
B          2.57830       -1.48926        0.00002
