24
AB9B10.log	Energy: -319824.3690225
C          3.79484        0.69835        0.00016
C          2.57837        1.39612        0.00004
C          1.34919        0.71557       -0.00012
C          1.34919       -0.71557       -0.00009
C          2.57837       -1.39612        0.00000
C          3.79484       -0.69835        0.00013
C         -1.34919       -0.71557       -0.00009
C         -1.34919        0.71557       -0.00012
C         -2.57837        1.39612        0.00004
H         -2.58731        2.48758        0.00001
C         -3.79484        0.69835        0.00016
C         -3.79484       -0.69835        0.00013
C         -2.57837       -1.39612        0.00000
H          0.00000        2.69259        0.00049
H          4.73978        1.24372        0.00025
H          2.58731        2.48758        0.00001
H          2.58731       -2.48758        0.00003
H          4.73978       -1.24372        0.00023
H          0.00000       -2.69259       -0.00059
H         -4.73978        1.24372        0.00025
H         -4.73978       -1.24372        0.00023
H         -2.58731       -2.48758        0.00003
B          0.00000        1.48819       -0.00048
B          0.00000       -1.48819       -0.00002
