12
AzBNBN19.log	Energy: -146880.2330054
C         -1.06863       -0.26064        0.00000
C          0.00000        0.75466        0.00000
C          1.27388        0.07803        0.00000
H          1.64966       -2.37700        0.00000
H         -1.11087       -2.28273        0.00000
H         -2.14332       -0.08273        0.00000
H          2.20507        0.63966        0.00000
C         -0.36241        2.07023        0.00000
B          1.01523       -1.36423        0.00000
N         -0.52900       -1.45201        0.00000
H          0.38090        2.86772        0.00000
H         -1.41168        2.36661        0.00000
