12
BBNBN5.log	Energy: -149117.5015137
C          0.70134        1.27532        0.00000
H          2.47704        0.04208        0.00000
H          1.29328        2.19094        0.00000
H         -2.44741       -0.11492        0.00000
H          1.32812       -1.94686        0.00000
N         -1.43712       -0.04916        0.00000
B         -0.68740       -1.26039        0.00000
H         -1.18606       -2.34843        0.00000
B         -0.82628        1.25254        0.00000
H         -1.52425        2.23045        0.00000
N          0.73811       -1.12694        0.00000
C          1.38545        0.09446        0.00000
