12
BBNBN16.log	Energy: -273217.7457242
C          0.61089       -1.31309        0.00000
C         -0.61089        1.31309        0.00000
H         -1.29297       -2.02685        0.00000
H          0.98604       -2.33578       -0.00001
H          1.29297        2.02685        0.00000
H         -0.98604        2.33578        0.00000
B         -1.45472        0.07927        0.00001
B          1.45472       -0.07926        0.00000
F         -2.82699        0.04035        0.00000
F          2.82699       -0.04035        0.00000
N          0.74434        1.17048        0.00000
N         -0.74434       -1.17048        0.00000
