12
BBNBN11.log	Energy: -149015.4342171
C         -1.54566       -0.28454        0.00000
C          0.43542        1.32073        0.00000
H         -2.61041       -0.53787        0.00000
H         -0.68605       -2.58265        0.00000
H          1.63753       -1.65272        0.00000
H          2.27791        0.42678        0.00000
H          0.97076        2.27337        0.00000
H         -1.77851        2.12210        0.00001
N          1.27300        0.29091        0.00000
N          0.86358       -1.00210        0.00000
B         -0.52984       -1.39044        0.00000
B         -1.09132        1.13288        0.00000
