12
BBNBN8.log	Energy: -149015.1746854
C          0.68642       -1.14020        0.00001
C          1.50933       -0.03032        0.00000
H          1.64485        2.33144        0.00013
H         -1.56915        2.27089        0.00004
H         -2.35941       -0.06341       -0.00002
H         -1.21335       -1.93292        0.00004
H          1.05900       -2.16693        0.00004
H          2.57877       -0.25937        0.00005
N         -1.35941        0.10054        0.00000
N         -0.66243       -1.08827       -0.00002
B          0.92234        1.36689       -0.00008
B         -0.75480        1.38461        0.00003
