12
BBNBN10.log	Energy: -149024.0623556
C         -0.68060       -1.11773       -0.00001
C          1.46027        0.02491        0.00001
H         -2.38131       -0.08663       -0.00001
H         -1.19185       -2.07544       -0.00002
H          1.08753       -2.01594        0.00001
H          2.51546       -0.25824        0.00001
H          1.60347        2.34727       -0.00002
H         -1.61961        2.24719       -0.00003
B         -0.78778        1.37640        0.00003
B          0.86979        1.39213       -0.00002
N         -1.37475        0.04025        0.00000
N          0.64592       -1.10368        0.00001
