12
BBNBN9.log	Energy: -149068.1135347
C         -0.67742       -1.15552       -0.00003
C          0.67742       -1.15552        0.00003
H          2.41283       -0.09958        0.00005
H          1.62344        2.24665        0.00003
H         -1.62344        2.24665       -0.00003
H         -2.41283       -0.09958       -0.00005
H         -1.23083       -2.09156       -0.00007
H          1.23083       -2.09156        0.00007
N          1.40721        0.02864        0.00001
N         -1.40721        0.02864       -0.00001
B          0.83916        1.33542       -0.00011
B         -0.83916        1.33542        0.00011
