12
BBNBN13.log	Energy: -149070.8044729
C          0.72727       -1.20988        0.00000
C          0.72727        1.20988        0.00000
H         -1.40327       -2.29630        0.00000
H          1.41376       -2.05428        0.00000
H          2.35113        0.00000        0.00000
H          1.41376        2.05428        0.00000
H         -1.40327        2.29630        0.00000
H         -2.46390        0.00000        0.00000
N         -1.44940        0.00000        0.00000
N          1.33374        0.00000        0.00000
B         -0.78258        1.27005        0.00000
B         -0.78258       -1.27005        0.00000
