18
BBNBN17.log	Energy: -369016.4378001
C          1.48365        1.20001        0.00000
C          0.15188        0.71860        0.00000
C         -0.15188       -0.71860        0.00000
C          0.93948       -1.61197        0.00000
H         -0.77325        2.68846        0.00000
H          1.62932        2.28167        0.00000
C         -0.93948        1.61197        0.00000
C         -1.48365       -1.20001        0.00000
H          0.77325       -2.68846        0.00000
H          2.93195       -1.88879        0.00000
H         -1.62932       -2.28167        0.00000
H         -2.93195        1.88879        0.00000
N         -2.21057        1.17407        0.00000
N          2.21057       -1.17407        0.00000
B          2.59951        0.22640        0.00000
B         -2.59951       -0.22640        0.00000
F          3.94860        0.47480        0.00000
F         -3.94860       -0.47480        0.00000
