12
BBNBN12.log	Energy: -148966.5726539
C          1.42750        0.04460        0.00000
C         -1.42750        0.04460        0.00000
H          1.07965       -2.00495        0.00000
H          2.48798       -0.22510        0.00000
H          1.60163        2.35475        0.00002
H         -1.60164        2.35475        0.00001
H         -2.48797       -0.22511        0.00000
H         -1.07965       -2.00495        0.00000
B         -0.82389        1.43349       -0.00001
B          0.82388        1.43349        0.00001
N         -0.66814       -1.07997        0.00000
N          0.66814       -1.07996        0.00000
