12
BNONO20.log	Energy: -258786.1853828
C         -1.47683       -0.06175       -0.00011
C         -0.64697       -1.22155       -0.00001
C          1.47683        0.06175       -0.00005
C          0.64697        1.22155        0.00001
H         -1.08999       -2.21336        0.00007
H          1.08999        2.21336        0.00008
N         -0.69708        1.11895       -0.00001
N          0.69708       -1.11895       -0.00001
O          2.71337        0.01073        0.00003
O         -2.71337       -0.01073        0.00007
H          1.25694       -1.96868        0.00005
H         -1.25694        1.96868        0.00004
