24
P.log	Energy: -336373.2043550
C          3.59233       -0.30057        0.00000
C          2.86264        0.88719        0.00000
C          1.43584        0.87601        0.00000
C          0.73395       -0.38381        0.00000
C          1.51110       -1.57997        0.00000
C          2.90700       -1.54344        0.00000
C          0.68726        2.11140        0.00000
C         -0.73395       -0.38381        0.00000
C         -1.43584        0.87601        0.00000
C         -0.68726        2.11140        0.00000
C         -2.86264        0.88719        0.00000
H         -3.38142        1.85482        0.00000
C         -3.59233       -0.30057        0.00000
C         -2.90700       -1.54344        0.00000
C         -1.51110       -1.57997        0.00000
H          1.24316        3.05801        0.00000
H          4.68929       -0.27697        0.00000
H          3.38142        1.85482        0.00000
H          1.01344       -2.55534        0.00000
H          3.47647       -2.48133        0.00000
H         -1.24316        3.05801        0.00000
H         -4.68929       -0.27697        0.00000
H         -3.47647       -2.48133        0.00000
H         -1.01344       -2.55534        0.00000
