24
PB1B8.log	Energy: -319801.7153784
C          3.72128       -0.38259       -0.00002
C          1.44927        0.92389        0.00041
C          0.73886       -0.35166        0.00000
C          1.50326       -1.50348       -0.00054
C          2.94562       -1.51588       -0.00053
C          0.71821        2.09096        0.00027
C         -0.73886       -0.35166        0.00001
C         -1.44927        0.92389       -0.00039
C         -0.71821        2.09096       -0.00029
C         -3.72128       -0.38259       -0.00003
C         -2.94562       -1.51588        0.00052
C         -1.50326       -1.50348        0.00057
H          1.24412        3.04768        0.00051
H          4.80628       -0.50608       -0.00008
H          1.01361       -2.47691       -0.00107
H          3.41365       -2.50508       -0.00099
H         -1.24412        3.04768       -0.00057
H         -4.80628       -0.50608       -0.00003
H         -3.41365       -2.50508        0.00098
H         -1.01361       -2.47691        0.00113
B          3.00995        0.96838        0.00062
H          3.57041        2.03105        0.00130
B         -3.00996        0.96837       -0.00059
H         -3.57041        2.03105       -0.00113
