24
PB2B7.log	Energy: -319795.6807623
C          2.80948        0.94205        0.00009
C          1.43420        0.91745        0.00001
C          0.69770       -0.36264       -0.00004
C          1.46866       -1.61326       -0.00008
C          2.82737       -1.66124       -0.00003
C          0.67451        2.15656       -0.00003
C         -0.69770       -0.36264       -0.00002
C         -1.43420        0.91744       -0.00002
C         -0.67451        2.15656       -0.00005
C         -2.80948        0.94205        0.00000
H         -3.27405        1.93260       -0.00001
C         -2.82737       -1.66124        0.00006
C         -1.46866       -1.61326        0.00001
H          1.23691        3.09078       -0.00003
H          3.27405        1.93260        0.00014
H          0.90815       -2.54507       -0.00017
H          3.29105       -2.65083       -0.00010
H         -1.23692        3.09078       -0.00009
H         -3.29105       -2.65083        0.00011
H         -0.90815       -2.54507       -0.00001
B          3.64349       -0.35290        0.00008
H          4.84373       -0.33647        0.00013
B         -3.64349       -0.35290        0.00005
H         -4.84373       -0.33647        0.00005
