24
PB3B6.log	Energy: -319797.8230702
C          3.70789       -0.19850        0.00016
C          2.90234        0.89770        0.00042
C          1.44656        0.81422        0.00020
C          0.74810       -0.47749       -0.00006
C          1.50530       -1.62478       -0.00050
C          0.71442        1.97755        0.00013
C         -0.74810       -0.47749        0.00003
C         -1.44656        0.81422       -0.00023
C         -0.71442        1.97755       -0.00018
C         -2.90234        0.89770       -0.00038
H         -3.31472        1.91142       -0.00071
C         -3.70789       -0.19850       -0.00009
C         -1.50530       -1.62478        0.00051
H          1.23701        2.93532        0.00027
H          4.78900       -0.04049        0.00034
H          3.31472        1.91142        0.00078
H          0.97874       -2.58087       -0.00087
H         -1.23701        2.93532       -0.00032
H         -4.78900       -0.04049       -0.00022
H         -0.97873       -2.58087        0.00089
B          3.05122       -1.59006       -0.00049
H          3.69059       -2.60729       -0.00104
B         -3.05122       -1.59006        0.00047
H         -3.69059       -2.60729        0.00086
