18
QDM13C46.log	Energy: -240501.6647933
C          0.05559       -0.66287       -0.00018
C          1.51426       -0.64440        0.00022
C          2.05885        0.72399        0.00036
C          1.27806        1.84041       -0.00001
C         -0.18691        1.80205       -0.00043
C         -0.73422        0.56976       -0.00057
H          3.14464        0.82942        0.00065
H         -0.76187        2.72721       -0.00032
C         -1.98097       -0.27546        0.00009
C         -1.07510       -1.45908       -0.00030
C         -3.30247       -0.05796        0.00048
H         -3.70673        0.95342        0.00045
H         -4.01107       -0.88580        0.00070
H          1.76349        2.81776        0.00014
C          2.30065       -1.75103        0.00009
H          3.38720       -1.66868        0.00025
H          1.87497       -2.75354       -0.00028
H         -1.25716       -2.53229       -0.00005
