22
QDM2C67.log	Energy: -288793.2232460
C          3.20831       -0.27863        0.00009
C          2.40421       -1.47358       -0.00006
C          1.04897       -1.60330       -0.00012
C          2.76660        1.01269        0.00011
C         -0.02871       -0.61842       -0.00005
C          1.41754        1.49834       -0.00001
C          0.20347        0.84062       -0.00006
H          4.28888       -0.43334        0.00019
H          2.96739       -2.40930       -0.00014
H          0.68233       -2.63293       -0.00023
H          3.53316        1.79037        0.00022
H          1.34049        2.58799       -0.00003
C         -0.98801        1.67375       -0.00011
H         -0.83951        2.75443       -0.00017
C         -1.31656       -1.09597        0.00001
H         -1.46878       -2.17684        0.00002
C         -2.50143       -0.26121        0.00005
C         -2.24696        1.17176       -0.00005
H         -3.10273        1.84917       -0.00007
C         -3.76923       -0.76392        0.00016
H         -3.95399       -1.83738        0.00023
H         -4.63638       -0.10500        0.00017
